
##########################################################################
#               Crystallographic Information Format file
#               Produced by PyCifRW module
#
#  This is a CIF file.  CIF has been adopted by the International
#  Union of Crystallography as the standard for data archiving and
#  transmission.
#
#  For information on this file format, follow the CIF links at
#  http://www.iucr.org
##########################################################################

data_0

loop_
  _atom_site_label
  _atom_site_fract_x
  _atom_site_fract_y
  _atom_site_fract_z
  _atom_site_type_symbol
         Se1       0.16666666666090216           0.8333333333390978  -0.08617671556685708         Se       
         V1        0.5       0.5       0.0       V         
         Se2       0.8333333333390979  0.16666666666090219           0.08617671556685708          Se
_cell_angle_alpha                       90.0
_cell_angle_beta                        90.0
_cell_angle_gamma                       119.99999999918793
_cell_length_a                          3.338545306959022
_cell_length_b                          3.338545306959022
_cell_length_c                          18.3181003223